LTspice 24.1.9 for Windows
Circuit: Z:\home\grzegorz\git\ETH1CVOLT\HARDWARE\SIM\ADHV4702-1.net
Start Time: Tue Feb 17 18:46:31 2026
solver = Alternate
Maximum thread count: 12
tnom = 27
temp = 27
method = modified trap
Direct Newton iteration failed to find .op point.  (Use ".option noopiter" to skip.)
Starting Gmin stepping
Gmin = 10
Gmin = 1.07374
Gmin = 0.115292
Gmin = 0.0123794
Gmin = 0.00132923
Gmin = 0.000142725
vernier = 0.5
vernier = 0.25
vernier = 0.125
vernier = 0.0625
Gmin = 4.67681e-05
vernier = 0.03125
vernier = 0.015625
vernier = 0.0078125
vernier = 0.0104167
Gmin = 4.60737e-05
vernier = 0.0138889
Gmin = 4.46584e-05
vernier = 0.0185185
vernier = 0.0246913
Gmin = 4.23816e-05
vernier = 0.0329218
vernier = 0.0438957
Gmin = 3.89936e-05
vernier = 0.0585276
Gmin = 3.42123e-05
vernier = 0.0780367
vernier = 0.104049
Gmin = 2.74932e-05
vernier = 0.138732
vernier = 0.184976
Gmin = 1.94451e-05
vernier = 0.246634
Gmin = 1.13336e-05
vernier = 0.328846
vernier = 0.438461
Gmin = 4.65379e-06
vernier = 0.584614
vernier = 0.779486
Gmin = 1.16778e-06
vernier = 1
Gmin = 1.50182e-07
vernier = 0.5
vernier = 0.25
vernier = 0.125
vernier = 0.0625
Gmin = 4.92117e-08
vernier = 0.0833333
Gmin = 4.10797e-08
vernier = 0.111111
vernier = 0.0555555
vernier = 0.0277778
vernier = 0.0138889
Gmin = 3.92781e-08
vernier = 0.00694444
vernier = 0.00347222
vernier = 0.00173611
Gmin = 3.9329e-08
vernier = 0.00231481
vernier = 0.00308642
Gmin = 3.9072e-08
vernier = 0.00411522
vernier = 0.00548696
Gmin = 3.86657e-08
vernier = 0.00731595
Gmin = 3.8035e-08
vernier = 0.00975459
vernier = 0.0130061
Gmin = 3.69996e-08
vernier = 0.0173415
vernier = 0.023122
Gmin = 3.54077e-08
vernier = 0.0308293
Gmin = 3.3043e-08
vernier = 0.0411057
vernier = 0.0548076
Gmin = 2.94304e-08
vernier = 0.0730768
vernier = 0.0974357
Gmin = 2.44848e-08
vernier = 0.129914
Gmin = 1.8357e-08
vernier = 0.173219
vernier = 0.230959
Gmin = 1.13715e-08
vernier = 0.307945
vernier = 0.410593
Gmin = 5.35706e-09
vernier = 0.547457
Gmin = 1.67852e-09
vernier = 0.729942
vernier = 0.973256
Gmin = 2.56938e-10
vernier = 1
Gmin = 2.78861e-11
Gmin = 2.99424e-12
Gmin = 3.21504e-13
Gmin = 0
Gmin stepping succeeded in finding the operating point.

Total elapsed time: 0.445 seconds.

Files loaded:
Z:\home\grzegorz\git\ETH1CVOLT\HARDWARE\SIM\ADHV4702-1.net
C:\users\grzegorz\AppData\Local\LTspice\lib\cmp\standard.bjt
C:\users\grzegorz\AppData\Local\LTspice\lib\sub\ADHV4702-1.lib

