LTspice 24.1.9 for Windows
Circuit: Z:\home\grzegorz\git\ETH1CVOLT\HARDWARE\SIM\LT8330_LV.net
Start Time: Sat Feb 14 13:47:00 2026
solver = Alternate
Maximum thread count: 12
tnom = 27
temp = 27
method = modified trap
C13: Increased Cpar to 4.7e-18
C15: Increased Cpar to 1e-11
C3: Increased Cpar to 4.7e-18
C5: Increased Cpar to 1e-11
Direct Newton iteration failed to find .op point.  (Use ".option noopiter" to skip.)
Starting Gmin stepping
Gmin = 10
Gmin = 1.07374
Gmin = 0.115292
Gmin = 0.0123794
Gmin = 0.00132923
Gmin = 0.000142725
Gmin = 1.5325e-05
Gmin = 1.6455e-06
vernier = 0.5
Gmin = 2.7607e-07
vernier = 0.25
vernier = 0.125
vernier = 0.0625
vernier = 0.03125
vernier = 0.015625
vernier = 0.0078125
vernier = 0.00390625
vernier = 0.00195312
vernier = 0.000976562
vernier = 0.000488281
Gmin = 2.7607e-07
Gmin = 0
Gmin stepping succeeded in finding the operating point.


Simulation stopped by user.
Total elapsed time: 537.723 seconds.

Files loaded:
Z:\home\grzegorz\git\ETH1CVOLT\HARDWARE\SIM\LT8330_LV.net
C:\users\grzegorz\AppData\Local\LTspice\lib\cmp\standard.dio
C:\users\grzegorz\AppData\Local\LTspice\lib\sub\Contrib\Wurth\WE-TDC_HV.lib
C:\users\grzegorz\AppData\Local\LTspice\lib\sub\LT8330.sub

