LTspice 24.1.9 for Windows
Circuit: Z:\home\grzegorz\git\ETH1CVOLT\HARDWARE\SIM\LTSPICE\ADHV4702-1.net
Start Time: Wed Feb 18 22:22:22 2026
solver = Alternate
Maximum thread count: 12
tnom = 27
temp = 27
method = modified trap
Direct Newton iteration failed to find .op point.  (Use ".option noopiter" to skip.)
Starting Gmin stepping
Gmin = 10
Gmin = 1.07374
Gmin = 0.115292
Gmin = 0.0123794
Gmin = 0.00132923
Gmin = 0.000142725
vernier = 0.5
vernier = 0.25
vernier = 0.125
Gmin = 6.87765e-05
vernier = 0.0625
vernier = 0.0833333
Gmin = 5.92243e-05
vernier = 0.111111
Gmin = 4.62685e-05
vernier = 0.148148
vernier = 0.197531
Gmin = 3.0675e-05
vernier = 0.263374
vernier = 0.351165
Gmin = 1.6057e-05
vernier = 0.46822
Gmin = 5.90248e-06
vernier = 0.624294
vernier = 0.832392
Gmin = 1.16068e-06
vernier = 1
Gmin = 1.33422e-07
vernier = 0.5
vernier = 0.25
vernier = 0.125
vernier = 0.0625
Gmin = 4.37199e-08
vernier = 0.03125
vernier = 0.015625
vernier = 0.0208333
Gmin = 4.22129e-08
vernier = 0.0277778
vernier = 0.037037
Gmin = 3.9504e-08
vernier = 0.0185185
vernier = 0.00925925
vernier = 0.0123457
Gmin = 3.91693e-08
vernier = 0.0164609
Gmin = 3.77478e-08
vernier = 0.0219478
vernier = 0.0292638
Gmin = 3.54789e-08
vernier = 0.0390184
vernier = 0.0520245
Gmin = 3.21454e-08
vernier = 0.0693659
Gmin = 2.75341e-08
vernier = 0.0924879
vernier = 0.046244
vernier = 0.023122
vernier = 0.011561
vernier = 0.00578049
vernier = 0.00289025
vernier = 0.00144512
vernier = 0.000722562
vernier = 0.000541921
Gmin = 2.69118e-08
vernier = 0.000406441
Gmin = 0
Gmin stepping failed

Starting source stepping with srcstepmethod=0
Source Step = 3.0303%
Source Step = 24.4318%
vernier = 0.015625
Source Step = 24.349%
Source Step = 24.4673%
Source Step = 24.5857%
Source Step = 24.7041%
Source Step = 24.8224%
vernier = 0.00585938
Source Step = 24.9882%
Source Step = 25.1657%
Source Step = 25.3433%
Source Step = 25.5208%
Source Step = 25.6984%
vernier = 0.00878906
Source Step = 25.7916%
Source Step = 25.8582%
Source Step = 25.9248%
Source Step = 25.9914%
Source Step = 26.0579%
vernier = 0.0032959
Source Step = 26.1378%
Source Step = 26.2377%
Source Step = 26.3376%
Source Step = 26.4375%
Source Step = 26.5373%
vernier = 0.00494385
Source Step = 26.6147%
Source Step = 26.6522%
Source Step = 26.6897%
Source Step = 26.7271%
Source Step = 26.7646%
vernier = 0.00185394
Source Step = 26.8039%
Source Step = 26.8601%
Source Step = 26.9162%
Source Step = 26.9724%
Source Step = 27.0286%
Source Step = 27.0848%
vernier = 0.00278091
Source Step = 27.1691%
Source Step = 27.2533%
Source Step = 27.3376%
Source Step = 27.4219%
Source Step = 27.5061%
vernier = 0.00417137
Source Step = 27.5398%
Source Step = 27.5714%
Source Step = 27.6031%
Source Step = 27.6347%
Source Step = 27.6663%
vernier = 0.00156426
Source Step = 27.7026%
Source Step = 27.75%
Source Step = 27.7974%
Source Step = 27.8448%
Source Step = 27.8922%
vernier = 0.0023464
Source Step = 27.9443%
Source Step = 28.0154%
Source Step = 28.0866%
Source Step = 28.1577%
Source Step = 28.2288%
vernier = 0.00351959
Source Step = 28.3034%
Source Step = 28.4101%
Source Step = 28.5167%
Source Step = 28.6234%
Source Step = 28.73%
Source Step = 28.8367%
vernier = 0.00527939
Source Step = 28.9967%
Source Step = 29.1567%
Source Step = 29.3166%
Source Step = 29.4766%
Source Step = 29.6366%
vernier = 0.00791909
Source Step = 29.8686%
Source Step = 30.1085%
Source Step = 30.3485%
Source Step = 30.5885%
Source Step = 30.8285%
vernier = 0.0118786
Source Step = 31.1644%
Source Step = 31.5244%
Source Step = 31.8843%
Source Step = 32.2443%
Source Step = 32.6043%
vernier = 0.0178179
Source Step = 33.0902%
Source Step = 33.6301%
Source Step = 34.1701%
Source Step = 34.71%
Source Step = 35.2499%
vernier = 0.0267269
Source Step = 35.9519%
Source Step = 36.7618%
Source Step = 37.5717%
Source Step = 38.3816%
Source Step = 39.1915%
vernier = 0.0400904
Source Step = 40.2039%
Source Step = 41.4187%
Source Step = 42.6336%
Source Step = 43.8485%
Source Step = 45.0633%
vernier = 0.0601356
Source Step = 46.5212%
Source Step = 48.3434%
Source Step = 50.1657%
Source Step = 51.988%
Source Step = 53.8103%
vernier = 0.0902034
Source Step = 55.9059%
Source Step = 58.6394%
Source Step = 61.3728%
Source Step = 64.1063%
Source Step = 66.8397%
vernier = 0.135305
Source Step = 69.8465%
Source Step = 73.9466%
Source Step = 78.0468%
Source Step = 82.1469%
Source Step = 86.2471%
vernier = 0.202958
Source Step = 90.5522%
Source Step = 91.2249%
Source Step = 91.321%
Source Step = 91.4171%
Source Step = 91.5132%
Source Step = 91.6093%
Source Step = 91.7054%
Source Step = 91.8015%
Source Step = 91.8976%
Source Step = 91.9937%
Source Step = 92.0898%
Source Step = 92.1859%
Source Step = 92.282%
Source Step = 92.3781%
Source Step = 92.4742%
Source Step = 92.5703%
Source Step = 92.6664%
Source Step = 92.7625%
Source Step = 92.8586%
Source Step = 92.9547%
Source Step = 93.0508%
Source Step = 93.1469%
Source Step = 93.243%
Source Step = 93.3391%
Source Step = 93.4352%
Source Step = 93.5313%
Source Step = 93.6274%
Source Step = 93.7234%
Source Step = 93.8195%
Source Step = 93.9156%
Source Step = 94.0117%
Source Step = 94.1078%
Source Step = 94.2039%
Source Step = 94.3%
Source Step = 94.3961%
Source Step = 94.4922%
Source Step = 94.5883%
Source Step = 94.6844%
Source Step = 94.7805%
Source Step = 94.8766%
Source Step = 94.9727%
Source Step = 95.0688%
Source Step = 95.1649%
Source Step = 95.261%
Source Step = 95.3571%
Source Step = 95.4532%
Source Step = 95.5493%
Source Step = 95.6454%
Source Step = 95.7415%
Source Step = 95.8376%
Source Step = 95.9337%
Source Step = 96.0298%
Source Step = 96.1259%
Source Step = 96.222%
Source Step = 96.3181%
Source Step = 96.4142%
Source Step = 96.5103%
Source Step = 96.6064%
Source Step = 96.7025%
Source Step = 96.7986%
Source Step = 96.8947%
Source Step = 96.9908%
Source Step = 97.0869%
Source Step = 97.183%
Source Step = 97.279%
Source Step = 97.3751%
Source Step = 97.4712%
Source Step = 97.5673%
Source Step = 97.6634%
Source Step = 97.7595%
Source Step = 97.8556%
Source Step = 97.9517%
Source Step = 98.0478%
Source Step = 98.1439%
Source Step = 98.24%
Source Step = 98.3361%
Source Step = 98.4322%
Source Step = 98.5283%
Source Step = 98.6244%
Source Step = 98.7205%
Source Step = 98.8166%
Source Step = 98.9127%
Source Step = 99.0088%
Source Step = 99.1049%
Source Step = 99.201%
Source Step = 99.2971%
Source Step = 99.3932%
Source Step = 99.4893%
Source Step = 99.5854%
Source Step = 99.6815%
Source Step = 99.7776%
Source Step = 99.8737%
Source Step = 99.9698%
Starting source stepping with srcstepmethod=1
Source Step = 3.0303%
Source Step = 33.3333%
Source Step = 63.6364%
Source Step = 93.9394%
Source Step = 100%
vernier = 0.25
Source Step = 99.0178%
Source Step = 99.0473%
Source Step = 99.0769%
Source Step = 99.1065%
Source Step = 99.1361%
Source Step = 99.1657%
Source Step = 99.1953%
Source Step = 99.2249%
Source Step = 99.2545%
Source Step = 99.2841%
Source Step = 99.3137%
Source Step = 99.3433%
Source Step = 99.3729%
Source Step = 99.4025%
Source Step = 99.4321%
Source Step = 99.4616%
Source Step = 99.4912%
Source Step = 99.5208%
Source Step = 99.5504%
Source Step = 99.58%
Source Step = 99.6096%
Source Step = 99.6392%
Source Step = 99.6688%
Source Step = 99.6984%
Source Step = 99.728%
Source Step = 99.7576%
Source Step = 99.7872%
Source Step = 99.8168%
Source Step = 99.8464%
Source Step = 99.8759%
Source Step = 99.9055%
Source Step = 99.9351%
Source Step = 99.9647%
Source Step = 99.9943%
Source stepping failed

Pseudo Transient succeeded in finding the operating point at 327.794 ms.
Total elapsed time: 2.571 seconds.

Files loaded:
Z:\home\grzegorz\git\ETH1CVOLT\HARDWARE\SIM\LTSPICE\ADHV4702-1.net
C:\users\grzegorz\AppData\Local\LTspice\lib\cmp\standard.bjt
C:\users\grzegorz\AppData\Local\LTspice\lib\sub\ADHV4702-1.lib

