LTspice 24.1.9 for Windows
Circuit: Z:\home\grzegorz\git\ETH1CVOLT\HARDWARE\SIM\LTSPICE\Diff_To_Single.net
Start Time: Wed Feb 18 16:55:58 2026
solver = Alternate
Maximum thread count: 12
tnom = 27
temp = 27
method = modified trap
Direct Newton iteration failed to find .op point.  (Use ".option noopiter" to skip.)
Starting Gmin stepping
Gmin = 10
Gmin = 1.07374
vernier = 0.5
vernier = 0.25
vernier = 0.125
vernier = 0.0625
vernier = 0.03125
vernier = 0.015625
vernier = 0.0078125
vernier = 0.00390625
Gmin = 1.19305
vernier = 0.00195312
vernier = 0.000976562
vernier = 0.000488281
Gmin = 0
Gmin stepping succeeded in finding the operating point.

Total elapsed time: 3.070 seconds.

Files loaded:
Z:\home\grzegorz\git\ETH1CVOLT\HARDWARE\SIM\LTSPICE\Diff_To_Single.net
C:\users\grzegorz\AppData\Local\LTspice\lib\sub\AD8475.lib
C:\users\grzegorz\AppData\Local\LTspice\lib\sub\ADA4522-1.lib

