LTspice 24.1.9 for Windows
Circuit: Z:\home\grzegorz\git\ETH1CVOLT\HARDWARE\SIM\Discharge.net
Start Time: Sun Feb 15 22:16:21 2026
solver = Alternate
Maximum thread count: 12
tnom = 27
temp = 27
method = modified trap
Direct Newton iteration for .op point succeeded.
Total elapsed time: 0.044 seconds.

Files loaded:
Z:\home\grzegorz\git\ETH1CVOLT\HARDWARE\SIM\Discharge.net

