LTspice 24.1.9 for Windows
Circuit: Z:\home\grzegorz\git\ETH1CVOLT\HARDWARE\SIM\LTSPICE\Draft2.net
Start Time: Thu Feb 19 14:02:16 2026
solver = Alternate
Maximum thread count: 12
tnom = 27
temp = 27
method = modified trap
Direct Newton iteration for .op point succeeded.
Total elapsed time: 0.057 seconds.

Files loaded:
Z:\home\grzegorz\git\ETH1CVOLT\HARDWARE\SIM\LTSPICE\Draft2.net
C:\users\grzegorz\AppData\Local\LTspice\lib\sub\ADI1.lib

