LTspice 24.1.9 for Windows
Circuit: Z:\home\grzegorz\git\ETH1CVOLT\HARDWARE\SIM\LTSPICE\Draft1.net
Start Time: Wed Feb 18 16:50:46 2026
solver = Alternate
Maximum thread count: 12
tnom = 27
temp = 27
method = modified trap
