LTspice 24.1.9 for Windows
Circuit: Z:\home\grzegorz\git\ETH1CVOLT\HARDWARE\SIM\LTSPICE\Isolated_Current_Measurement.net
Start Time: Thu Feb 19 14:07:42 2026
solver = Alternate
Maximum thread count: 12
tnom = 27
temp = 27
method = modified trap
C1: Increased Cpar to 1e-15
Direct Newton iteration for .op point succeeded.
Total elapsed time: 0.098 seconds.

Files loaded:
Z:\home\grzegorz\git\ETH1CVOLT\HARDWARE\SIM\LTSPICE\Isolated_Current_Measurement.net
C:\users\grzegorz\AppData\Local\LTspice\lib\sub\ADI1.lib

