LTspice 24.1.9 for Windows
Circuit: Z:\home\grzegorz\git\ETH1CVOLT\HARDWARE\SIM\LT8365_N.net
Start Time: Sat Feb 14 11:59:53 2026
solver = Alternate
Maximum thread count: 12
tnom = 27
temp = 27
method = modified trap
C1: Increased Cpar to 1e-14
C8: Increased Cpar to 1e-11
C9: Increased Cpar to 4.7e-12
C10: Increased Cpar to 1e-11
Direct Newton iteration for .op point succeeded.
Total elapsed time: 853.955 seconds.

Files loaded:
Z:\home\grzegorz\git\ETH1CVOLT\HARDWARE\SIM\LT8365_N.net
C:\users\grzegorz\AppData\Local\LTspice\lib\cmp\standard.dio
C:\users\grzegorz\AppData\Local\LTspice\lib\sub\LT8365.sub

